[General]
network = ArquiteturaAvionica
sim-time-limit = 5s

# ----------------------------------------------------
# 1. A VACINA GLOBAL (BYPASS DA IDE E DO INET)
# ----------------------------------------------------
# 1. Este comando global engana a verificação visual da IDE (sem sublinhado vermelho),
# mas desliga a trava de colisão de Beacons e pacotes no motor C++.
**.sameTransmissionStartTimeCheck = "ignore"

# 2. Garantimos que o simulador sabe que tipo de física o rádio usa
*.radioMedium.typename = "Ieee80211ScalarRadioMedium"

# 3. Jitter de Aplicação (Evita colisão de dados puros)
**.app[*].startTime = uniform(0ms, 5ms)
**.app[*].sendInterval = uniform(0.8ms, 1.2ms)
# ----------------------------------------------------

# ----------------------------------------------------
# 2. Configurações de Interfaces e Ativação do Wi-Fi
# ----------------------------------------------------
*.sensor_WAIC.numWlanInterfaces = 1
*.sensor_pressao_motor.numWlanInterfaces = 1
*.lider_cluster.numWlanInterfaces = 2
*.accessPoint_A.numWlanInterfaces = 1
*.accessPoint_B.numWlanInterfaces = 1

# Canais de rádio separados (APs)
*.accessPoint_A.wlan[0].mgmt.typename = "Ieee80211MgmtAp"
*.accessPoint_A.wlan[0].mgmt.ssid = "Canal_Principal"
*.accessPoint_B.wlan[0].mgmt.typename = "Ieee80211MgmtAp"
*.accessPoint_B.wlan[0].mgmt.ssid = "Canal_Redundante"

# Sensores apontando para a rede local
**.sensor_WAIC.wlan[0].mgmt.typename = "Ieee80211MgmtSta"
**.sensor_WAIC.wlan[0].agent.defaultSsid = "Canal_Principal"
**.sensor_pressao_motor.wlan[0].mgmt.typename = "Ieee80211MgmtSta"
**.sensor_pressao_motor.wlan[0].agent.defaultSsid = "Canal_Principal"

# Líder conectado simultaneamente aos dois caminhos aviônicos
*.lider_cluster.wlan[0].mgmt.typename = "Ieee80211MgmtSta"
*.lider_cluster.wlan[0].agent.defaultSsid = "Canal_Principal"
*.lider_cluster.wlan[1].mgmt.typename = "Ieee80211MgmtSta"
*.lider_cluster.wlan[1].agent.defaultSsid = "Canal_Redundante"

# Autoconfiguração Globals
*.configurator.dumpAddresses = true
*.configurator.dumpTopology = true
**.macAddress = "auto"
**.mac.address = "auto"
**.wlan[*].bitrate = 54Mbps
**.eth[*].bitrate = 100Mbps

# ----------------------------------------------------
# 3. Lógica de Aplicações e Fluxo Distribuído
# ----------------------------------------------------

# Sensor Cabo (Redundância Física)
*.sensor_freio.numApps = 2
*.sensor_freio.app[0].typename = "UdpBasicApp"
*.sensor_freio.app[0].destAddresses = "computador_voo"
*.sensor_freio.app[0].destPort = 1000
*.sensor_freio.app[0].messageLength = 64B

*.sensor_freio.app[1].typename = "UdpBasicApp"
*.sensor_freio.app[1].destAddresses = "computador_voo"
*.sensor_freio.app[1].destPort = 1001
*.sensor_freio.app[1].messageLength = 64B

# Sensores de Borda Wireless (WAIC)
*.sensor_WAIC.numApps = 1
*.sensor_WAIC.app[0].typename = "UdpBasicApp"
*.sensor_WAIC.app[0].destAddresses = "lider_cluster"
*.sensor_WAIC.app[0].destPort = 5000
*.sensor_WAIC.app[0].messageLength = 64B

*.sensor_pressao_motor.numApps = 1
*.sensor_pressao_motor.app[0].typename = "UdpBasicApp"
*.sensor_pressao_motor.app[0].destAddresses = "lider_cluster"
*.sensor_pressao_motor.app[0].destPort = 5001
*.sensor_pressao_motor.app[0].messageLength = 64B

# Líder do Cluster (Agregador)
*.lider_cluster.numApps = 4
*.lider_cluster.app[0].typename = "UdpSink"
*.lider_cluster.app[0].localPort = 5000
*.lider_cluster.app[1].typename = "UdpSink"
*.lider_cluster.app[1].localPort = 5001
*.lider_cluster.app[2].typename = "UdpBasicApp"
*.lider_cluster.app[2].destAddresses = "computador_voo"
*.lider_cluster.app[2].destPort = 2000
*.lider_cluster.app[2].messageLength = 128B
*.lider_cluster.app[3].typename = "UdpBasicApp"
*.lider_cluster.app[3].destAddresses = "computador_voo"
*.lider_cluster.app[3].destPort = 2001
*.lider_cluster.app[3].messageLength = 128B

# Computador de Voo (O Coração)
*.computador_voo.numApps = 5
*.computador_voo.app[0].typename = "UdpSink" 
*.computador_voo.app[0].localPort = 1000
*.computador_voo.app[1].typename = "UdpSink" 
*.computador_voo.app[1].localPort = 1001
*.computador_voo.app[2].typename = "UdpSink" 
*.computador_voo.app[2].localPort = 2000
*.computador_voo.app[3].typename = "UdpSink" 
*.computador_voo.app[3].localPort = 2001
*.computador_voo.app[4].typename = "UdpBasicApp"
*.computador_voo.app[4].destAddresses = "atuador_flap"
*.computador_voo.app[4].destPort = 3000
*.computador_voo.app[4].messageLength = 32B

# Atuador
*.atuador_flap.numApps = 1
*.atuador_flap.app[0].typename = "UdpSink"
*.atuador_flap.app[0].localPort = 3000

# ----------------------------------------------------
# 4. Estatísticas para o Artigo
# ----------------------------------------------------
**.scalar-recording = true
**.vector-recording = true

# Isolamento das métricas MAC que causavam o Erro Fatal (cObject)
**.wlan[*].mac.dcf.channelAccess.contention.*.record = false
**.wlan[*].mac.*.vector-recording = false
**.wlan[*].radio.*.vector-recording = false

**.computador_voo.app[*].packetReceived:count.record = true
**.computador_voo.app[*].endToEndDelay:vector.record = true
**.computador_voo.app[*].endToEndDelay:histogram.record = true
